Version 4
SHEET 1 880 680
WIRE -208 -112 -384 -112
WIRE -80 -112 -208 -112
WIRE -208 -32 -208 -112
WIRE -80 -32 -80 -112
WIRE -208 64 -208 48
WIRE -208 64 -288 64
WIRE -208 96 -208 64
WIRE -384 144 -384 -112
WIRE -80 144 -80 48
WIRE -80 144 -144 144
WIRE -16 144 -80 144
WIRE 160 144 160 112
WIRE 160 144 64 144
WIRE 160 160 160 144
WIRE -80 192 -80 144
WIRE -208 256 -208 192
WIRE -384 272 -384 224
WIRE 160 272 160 240
WIRE -80 320 -80 272
FLAG 160 272 0
FLAG 160 112 Reference
FLAG -384 272 0
FLAG -80 320 0
FLAG -208 256 0
FLAG -288 64 out
SYMBOL voltage 160 144 R0
WINDOW 123 0 0 Left 0
WINDOW 39 0 0 Left 0
SYMATTR InstName V1
SYMATTR Value SINE(0 1 1k)
SYMBOL res -224 -48 R0
SYMATTR InstName R1
SYMATTR Value 0.5k
SYMBOL res -96 -48 R0
SYMATTR InstName R2
SYMATTR Value 130k
SYMBOL res -96 176 R0
SYMATTR InstName R3
SYMATTR Value 15k
SYMBOL res 80 128 R90
WINDOW 0 0 56 VBottom 2
WINDOW 3 32 56 VTop 2
SYMATTR InstName R4
SYMATTR Value 100k
SYMBOL voltage -384 128 R0
WINDOW 123 0 0 Left 0
WINDOW 39 0 0 Left 0
SYMATTR InstName V2
SYMATTR Value 5
SYMBOL npn -144 96 M0
SYMATTR InstName Q1
SYMATTR Value 2N2222
TEXT 384 88 Left 2 !.tran 0 100m 0 100n
TEXT 392 144 Left 2 !.options numdgt = 7
TEXT 392 176 Left 2 !.options plotwinsize =0
TEXT 400 216 Left 2 !.four 1000 10 100 V(reference) V(out)
TEXT -168 -208 Left 4 ;FFT Basics
